26
 energy: -37.541308504165 gnorm: 0.000063515707 xtb: 6.7.1 (b14f90e)
C           -2.78465758894182        0.64144144275942        0.37640982861556
C           -1.84565154167117        1.63296206182202        0.34040341823840
C           -0.53695065668558        1.28372002923620       -0.01666072673158
C           -0.20101012264347       -0.07913106289549       -0.32515186040256
C           -1.19369059602289       -1.08104994794749       -0.27105394580542
C           -2.47253524274633       -0.71679182900983        0.07396854663886
O           -3.49743831235850       -1.57555625946205        0.15398294554642
C            1.14837629487630       -0.10574325625217       -0.64692747310957
C            1.67950263324605        1.25746651215898       -0.48978326974632
N            0.55798975449294        2.04614448348334       -0.11892126772167
C            2.07510919764354       -1.23924857048685       -0.78952071580968
C            2.83197841121376       -1.40742393311693        0.56188308104543
N            3.58977365934750       -0.21493876159936        0.88323687011795
H           -3.80961743355043        0.85431981882752        0.63675384137683
H           -2.10304719043947        2.65407461738902        0.57100806616599
H           -0.94569489951104       -2.10480251205225       -0.50669350552278
H           -3.23856013381563       -2.47829074940992       -0.07231967459876
H            2.21943712898704        1.66433580981582       -1.34633765137556
H            0.58503282177412        3.04349819569152        0.01908186092013
H            2.80996989868613       -1.04698724016750       -1.57202782002401
H            1.54950795489808       -2.16523213613923       -1.01161085988173
H            3.46135612845943       -2.29814277747505        0.46734442327797
H            2.10156014999773       -1.58005992402820        1.35495494881126
H            4.45071438611249       -0.16167135281962        0.34942422042371
H            3.80941223100156       -0.15578628586380        1.86933558753146
H            2.47244105584965        1.11809445934193        0.31311122631967
