25
 energy: -34.076073598427 gnorm: 0.000518372808 xtb: 6.7.1 (b14f90e)
C           -0.62486164880000       -1.36763932110000       -0.26050029070000
C           -2.15541219410000       -1.29972773770000       -0.28181328940000
C           -2.73491719120000        0.05303656000000       -0.68149184990000
N           -2.44556105890000        1.09256587220000        0.32724310410000
C            0.02783977080000       -0.84686158440000        1.03433724360000
C            0.88737557750000        0.40907306300000        0.84068926570000
C            1.98767144070000        0.13297065800000       -0.19506228410000
O            1.97385154140000        0.68642244280000       -1.26397418160000
O            2.87213986350000       -0.74095879890000        0.21573458320000
N            0.09002075770000        1.53862448900000        0.32560871450000
H            1.36176265650000        0.66256507150000        1.79154279790000
H           -0.23395484550000       -0.83699254600000       -1.12928635000000
H           -0.34708205020000       -2.41350260200000       -0.38436762340000
H           -2.55198387050000       -1.60032261480000        0.68967553420000
H           -2.51840628560000       -2.02294506210000       -1.01196394990000
H           -3.81443500240000       -0.05247446990000       -0.81948631880000
H           -2.30293731030000        0.38022806370000       -1.62943420070000
H           -2.79390381160000        0.79560788070000        1.23747484500000
H           -2.91758267000000        1.95986555130000        0.07986056660000
H            0.68338658020000       -1.61274039910000        1.44816415270000
H           -0.72990463330000       -0.63818535870000        1.78994063200000
H            3.55935089400000       -0.91917899230000       -0.44928795120000
H            0.38856116250000        1.66499009340000       -0.65635889720000
H            0.29398454280000        2.40428512010000        0.82034481280000
H           -1.13707586240000        1.31541998760000        0.35436407120000
