27
 energy: -39.954639295212 gnorm: 0.000050715916 xtb: 6.7.1 (b14f90e)
C            0.05451685870000       -1.92009687980000       -0.59708151820000
C            1.11791224830000       -1.46377347500000        0.42067131920000
C            2.20056065760000       -0.53652276310000       -0.17326209640000
C            1.77472237720000        0.94307257560000       -0.17851147210000
O            0.62440380630000        1.30745732620000       -0.31511493780000
O            2.76058287430000        1.78214998480000       -0.02845564960000
N            3.49476696180000       -0.58078882450000        0.49207100260000
C           -1.37645729190000       -1.65992376160000       -0.12889651120000
N           -1.57828518950000       -0.22586484960000       -0.07701138780000
C           -2.70512267320000        0.42919986010000        0.09896758400000
N           -3.86848993960000       -0.19950915560000        0.29587970160000
N           -2.66705964520000        1.76363376160000        0.08537221780000
H            2.36635100680000       -0.80214729260000       -1.22560758960000
H            0.16294839870000       -2.98663460360000       -0.79122509270000
H            0.19532581460000       -1.40138266290000       -1.54648832770000
H            1.62473446460000       -2.34165628610000        0.82520308020000
H            0.64253589840000       -0.95205237620000        1.26026502440000
H            3.58982904130000        1.26470174020000        0.12597908340000
H            4.04254178640000       -1.38494521740000        0.21428381110000
H            3.39056305130000       -0.60578711670000        1.50135155580000
H           -1.53912720120000       -2.10589640260000        0.85915220240000
H           -2.07665411000000       -2.11499404530000       -0.83746577840000
H           -3.91785457350000       -1.20270598840000        0.30853173890000
H           -4.72364188610000        0.31577953470000        0.41035501220000
H           -1.78863057630000        2.23363156720000       -0.06866985210000
H           -3.49398920250000        2.32024342480000        0.21153532370000
H           -0.72198125950000        0.33884879290000       -0.20887546840000
