27
 energy: -39.903899445886 gnorm: 0.000103578720 xtb: 6.7.1 (b14f90e)
O           -2.44280416460000       -0.75278560920000       -1.19183668830000
O           -0.68518027380000       -1.74803441970000       -0.28945537210000
N           -0.72886909960000       -0.08098978710000        1.89133967830000
N            1.48931905090000        0.75124912020000        0.50930809240000
N            1.62442302040000       -1.50134940860000        0.83525819110000
N            2.37917652390000       -0.61264583860000       -1.23082219040000
C           -1.38040606790000        1.65048803850000        0.12563447950000
C           -0.20007525230000        1.83036150660000       -0.84000721980000
C           -1.59302050300000        0.25151844960000        0.76735992580000
C            1.18973702890000        1.96491214610000       -0.19353534780000
C           -1.50874946810000       -0.84336202610000       -0.28058464750000
C            1.88726911030000       -0.31724260110000       -0.00878997970000
H           -2.28822785390000        1.88286326440000       -0.43227373080000
H           -1.29569190970000        2.37450111720000        0.93787730550000
H           -0.17816092290000        1.00504808580000       -1.55603036150000
H           -0.37929774340000        2.74902520430000       -1.40008525940000
H           -2.63832898300000        0.22359895950000        1.09872653730000
H            1.92221892270000        2.21025583240000       -0.97166461610000
H            1.18312571860000        2.76900210720000        0.54460500860000
H           -1.21124787930000        0.07660760340000        2.76666958840000
H            0.09410487040000        0.51643477540000        1.86892998550000
H           -2.41648113380000       -1.47987283300000       -1.83874612690000
H            0.59127155290000       -1.75397387910000        0.52913148210000
H            1.55318698930000       -1.20720673690000        1.81465153400000
H            2.73306423250000       -1.52353355440000       -1.46509855380000
H            2.64052968110000        0.14372674910000       -1.84040662430000
H            2.26690917340000       -2.28693405970000        0.71644503230000
