26
 energy: -37.540914779561 gnorm: 0.000040913133 xtb: 6.7.1 (b14f90e)
C            2.64202530133986       -0.31715938420876        0.28418552358748
C            1.94247219109157       -1.51313902309123        0.36980432332523
C            0.58391030206846       -1.52094964882720        0.09406373816524
C           -0.10071535108582       -0.34085161947341       -0.28309948104223
C            0.60290433700463        0.93756715958118       -0.44474074051567
C            2.03283443459437        0.86836207414483       -0.11120619994955
O            2.78930916646585        1.94606578333436       -0.19903451123374
C           -1.45933580513913       -0.64646904442638       -0.37701014664628
C           -1.56558183322708       -2.00181012023041       -0.09320935510298
N           -0.34794554353001       -2.51775847255442        0.17718750356949
C           -2.56702098209686        0.32783766956250       -0.61243306746793
C           -2.70044702313394        1.31191464159040        0.56190463891580
N           -1.65745941188580        2.34342783877441        0.52606058765450
H            3.69600320750546       -0.28761866605545        0.50965807641614
H            2.45795301780688       -2.41511063357876        0.66333581588993
H            0.47140801702048        1.33544427824353       -1.45872109598748
H            2.31270354360662        2.73951243040421       -0.48492890337250
H           -2.44955428643250       -2.60966323372255       -0.06957727851241
H           -0.16109276650246       -3.47706081464694        0.42464860122506
H           -3.50475275273505       -0.21528714389514       -0.72045538204456
H           -2.38968252085658        0.88734991518570       -1.53335523791071
H           -2.59825562946968        0.76638828093210        1.50253973175133
H           -3.70289565092791        1.75707375018487        0.53640855963126
H           -1.68917160572760        2.88973745731505        1.38133879000528
H           -1.83718410321966        2.97958124640356       -0.24655699935842
H            0.00474659226590        1.67530391215398        0.17195827250775
