19
 energy: -30.517062114316 gnorm: 0.000072850457 xtb: 6.7.1 (b14f90e)
C           -0.53599691120000       -1.15626310180000       -0.34682932920000
C           -1.82743823680000       -0.34808404660000       -0.58141291460000
C           -1.28337711860000        1.08035838670000       -0.66260920070000
N           -0.34928805210000        1.10765705930000        0.49007025650000
C            0.29842442030000       -0.23467738000000        0.55884101640000
C            1.74663695320000       -0.02071702080000        0.08131371710000
O            2.13525004320000        1.09590911320000       -0.14280250550000
O            2.42148032150000       -1.13016175340000       -0.02906921990000
O           -2.67249623110000       -0.38268299490000        0.53884179460000
H           -2.34304344770000       -0.64754403550000       -1.49780701580000
H            0.32106575450000       -0.60096804020000        1.58749468240000
H           -0.03263365580000       -1.34906004250000       -1.29269287350000
H           -0.73961245470000       -2.10980090180000        0.13454800690000
H           -2.06879290730000        1.82515536820000       -0.54742621040000
H           -0.73735730160000        1.24563095640000       -1.59046584250000
H           -0.88394757970000        1.30791977500000        1.33910258870000
H            3.34258896120000       -0.99419828880000       -0.31550315540000
H           -3.25349749080000       -1.14966225710000        0.51541094600000
H            0.42658183330000        1.79390633100000        0.36071023690000
