26
 energy: -37.509595214148 gnorm: 0.000093563708 xtb: 6.7.1 (b14f90e)
C            2.63849745920000       -0.05890109440000        0.36144684950000
C            2.21108844500000        1.21090906850000        0.36047213090000
C            0.90164573730000        1.51603204400000       -0.28102252190000
C           -0.03252694890000        0.34977300050000       -0.35936333600000
C            0.47492925990000       -0.94399761250000       -0.41488780230000
C            1.80350277000000       -1.15018890740000       -0.09136982800000
O            2.37057310800000       -2.34283041010000       -0.06643613100000
C           -1.34010284820000        0.83995991810000       -0.22802194020000
C           -1.22220358970000        2.19039113930000        0.08359911510000
N            0.04851729390000        2.58903929420000        0.14367451950000
C           -2.62550567740000        0.09107238070000       -0.33813331320000
C           -2.74694295420000       -1.08940634150000        0.64483944320000
N           -2.12562877630000       -2.28865091920000        0.09674537220000
H            3.61036894520000       -0.32995702970000        0.74279127490000
H            2.82278898340000        2.02693617420000        0.70909441660000
H           -0.22119244190000       -1.76621947030000       -0.54154245970000
H            1.77104886830000       -3.05153376420000       -0.34467956270000
H           -2.02742159790000        2.87705557540000        0.27833155470000
H            0.35733632390000        3.53817380790000        0.28398128060000
H           -2.72979527320000       -0.30004946050000       -1.35301692580000
H           -3.44408183260000        0.78777608890000       -0.15940340490000
H           -3.81254541250000       -1.23480962890000        0.86864072010000
H           -2.23813728940000       -0.84338290710000        1.58018253110000
H           -2.12344888850000       -3.02439160090000        0.79551485790000
H           -2.66921472240000       -2.62732363150000       -0.69234335500000
H            1.19627064030000        1.74222610610000       -1.32666770170000
