19
 energy: -30.479919304053 gnorm: 0.000064500303 xtb: 6.7.1 (b14f90e)
C            0.64851906830000       -0.90656802720000        0.66404980610000
C            1.99430279540000       -0.19972089410000        0.42092815510000
C            1.60174931060000        1.27334424900000        0.06698348320000
N            0.13732732260000        1.35656219990000        0.08681677750000
C           -0.27670641510000       -0.01532639410000       -0.18780123020000
C           -1.73923053180000       -0.16538397960000       -0.10779790460000
O           -2.26386953760000       -1.31287172130000        0.02448244730000
O           -2.48888687380000        0.87404841210000       -0.18976151890000
O            2.59453820560000       -0.84118571960000       -0.67185174380000
H            2.63470445000000       -0.24527710460000        1.30777561730000
H           -0.00199192420000       -0.23052490750000       -1.23906584570000
H            0.35836725880000       -0.87366940060000        1.71264180780000
H            0.69455838680000       -1.93531374470000        0.32029380420000
H            1.93959713060000        1.48705878330000       -0.95021719260000
H            2.03402956440000        2.00541068970000        0.74393778400000
H           -0.14726662740000        1.61324926570000        1.03150189750000
H           -1.98650333440000        1.71187009040000       -0.31292814390000
H            3.51179366070000       -0.56532140870000       -0.76884604050000
H           -3.24412383230000       -1.33799582550000        0.03203700140000
