18
 energy: -24.133404764334 gnorm: 0.000048272117 xtb: 6.7.1 (b14f90e)
C            1.58312772830000        1.05646503180000        0.02193255490000
C            0.20425971670000        0.51899958830000       -0.10788985740000
N            0.30657570250000       -0.78212763960000       -0.09228036910000
C            1.66203648280000       -1.12037388080000        0.04518568440000
N            2.41014302060000       -0.10341864040000        0.10651217020000
C           -1.09571786720000        1.19556739030000       -0.23555763900000
C           -2.22953477760000        0.36973872520000        0.40816097660000
N           -2.24388394500000       -0.99279236220000       -0.13048665040000
H            1.72968472550000        1.68367444530000        0.90874375040000
H           -0.62097910480000       -1.31541152480000       -0.12056783500000
H            1.99158966150000       -2.14079287000000        0.08509494880000
H           -1.30616044590000        1.31704863080000       -1.30516512090000
H           -1.06219818230000        2.19590511150000        0.19742054140000
H           -3.17440354650000        0.90132028450000        0.25374527430000
H           -2.05284876600000        0.30328388460000        1.48454978580000
H           -2.83110141460000       -1.59474356360000        0.43703326870000
H           -2.62019746220000       -1.00543873210000       -1.07474382910000
H            1.89629521720000        1.68193899530000       -0.82151371350000
