21
 energy: -32.874162545795 gnorm: 0.000068086247 xtb: 6.7.1 (b14f90e)
O           -3.84160907734684       -0.39788327876396        0.13963284006298
O            2.40947071446573       -1.20395028567718        0.67224680175250
N            1.57263309069056        0.67620983097569       -0.32053033006397
C            0.18360537252014        0.38317017517516       -0.20618429903762
C           -0.67960468513981        1.41475051422725        0.15206560539214
C           -0.32388838307207       -0.88891294838841       -0.47728602829088
C           -2.03059966552704        1.17301549614525        0.27802851643538
C           -1.67519594098027       -1.12580478366406       -0.35860516959455
C           -2.54693086186690       -0.10284672515289        0.03293111725418
C            2.57386984410997       -0.06780553626823        0.07322813725008
C            3.97236317726872        0.35587991956679       -0.15124273817840
H           -0.29059299319283        2.40298527216473        0.34359085581598
H            0.31343049850070       -1.67902330217725       -0.84750247938899
H            1.78436788171457        1.58883168881411       -0.71219768185677
H           -2.69367535007222        1.97671013175111        0.56215729722958
H           -2.08852929393670       -2.09657557209432       -0.57662338115471
H            4.42860617917355       -0.29344372131008       -0.90080473340119
H            4.54772281261813        0.21449131720248        0.76306422896197
H            4.04756419659570        1.38641401461556       -0.48336253210211
H           -4.37548354459028        0.36643517867509        0.39613965745597
H            1.47970491746718       -1.44153979671683        0.85468514915841
