27
 energy: -34.504693325427 gnorm: 0.000042281075 xtb: 6.7.1 (b14f90e)
C           -1.39722574182332        1.65168032079309       -0.09824137366547
C           -2.18940610358452        1.16825702612601        1.11417438908602
C           -2.74929746014802       -0.15881642818502        0.62007642039081
C           -0.85367227353286        0.33774516249103       -0.71218756856473
N           -1.64339156586824       -0.74105898088923       -0.13196908681711
C           -2.03441529482627       -1.77624212114781       -1.06187059054710
C            0.59586531400874        0.14879857648466       -0.35066992081645
C            1.63456114191543        0.75758678309022       -1.05875609446845
C            0.93249459736075       -0.63989307012438        0.73989372181692
C            2.95246352717329        0.54877709536083       -0.67448642438421
C            3.22091833262395       -0.24664869763933        0.42147907005312
N            2.20845546820405       -0.80637561592213        1.09360557935338
H           -2.97014877011536        1.86635454378016        1.40341893109814
H           -1.52894459214197        1.00959678706140        1.96708210135019
H           -0.60427056214662        2.35060672162540        0.16145631625444
H           -2.06314979160040        2.13567277998192       -0.81093139204710
H           -3.62734223215935        0.01016995275255       -0.01948643674355
H           -3.03626488219862       -0.83193576794650        1.42910024436074
H           -1.14503605931036       -2.20810154827878       -1.51934070969072
H           -2.69852817286787       -1.40733749813260       -1.85510356498218
H           -2.55583035704460       -2.55732855185386       -0.51246109710707
H           -0.93479728928564        0.37000751270935       -1.80722558779775
H            1.41051416298156        1.38472220298016       -1.90879514786262
H            3.76506232628859        1.00045323636932       -1.22051073958690
H            0.15413907693767       -1.13966706585653        1.29837412940692
H            4.22554528143443       -0.43867227591984        0.76530030824519
H            2.41865536932553       -1.38548876031008        1.90390023006553
