17
 energy: -31.394151710361 gnorm: 0.000242432532 xtb: 6.7.1 (b14f90e)
C            0.70700584620000       -0.61098438070000        0.97815010960000
C           -0.63629888630000       -0.94191077540000        0.26514101070000
C           -1.56053673110000        0.27266953920000        0.13041526390000
O           -2.81610915810000       -0.02303739000000        0.25706336630000
O           -1.15276510130000        1.39206110680000       -0.15995970510000
N           -0.36422023350000       -1.50914346120000       -1.03593130710000
C            1.66184426940000        0.19305919030000        0.15064660860000
O            2.89152358660000       -0.15819259310000        0.02989860930000
O            1.31499008910000        1.24285472320000       -0.43560211400000
H           -1.15345309670000       -1.69300240800000        0.86971028370000
H            1.16051854720000       -1.56032662330000        1.26756869540000
H            0.49388314620000       -0.04343350640000        1.89073786160000
H            3.16974384790000       -0.98180499360000        0.46569203250000
H           -1.09381518350000       -2.12980290110000       -1.35869133290000
H           -0.17074104120000       -0.82064050140000       -1.75372789670000
H            0.25535652460000        1.48209309190000       -0.34570822590000
H           -3.42203868120000        0.72507501800000        0.09424193870000
