26
 energy: -37.532878241828 gnorm: 0.000072265259 xtb: 6.7.1 (b14f90e)
C           -2.77013800785185       -0.02958198520476        0.12140706093691
C           -2.17985738987527        1.31923174492015        0.19273705817062
C           -0.84519879975898        1.46499420881366        0.07095163977506
C            0.04438603687937        0.33224248956826       -0.12692367559685
C           -0.46625641637301       -0.96870747831081       -0.18872016380731
C           -1.81749215833510       -1.15998468939335       -0.06773085994043
O           -2.39895883063680       -2.35018124941081       -0.10682900676861
C            1.35075671854368        0.84388451497663       -0.21411456339262
C            1.23359436488668        2.21743323147585       -0.06470981058866
N           -0.05225891730619        2.58927510166284        0.10143320869040
C            2.62577328631032        0.10025623376225       -0.43553044700680
C            2.85811678848249       -1.05383141611389        0.55577116235418
N            2.20144572605128       -2.27509492926994        0.09968439739499
H           -3.36900331618160       -0.21858038024532        1.02219068028481
H           -2.84602694950544        2.15583170355004        0.34150396037745
H            0.23901682689652       -1.78700302904506       -0.29401008534574
H           -1.76406283640491       -3.07152173448624       -0.23030768584843
H            2.02339808595776        2.94652363239913       -0.07321685640959
H           -0.37952769635500        3.53453924173895        0.22500615303537
H            3.45113559565842        0.80794327003487       -0.35981953426655
H            2.62958828774345       -0.31219153277352       -1.44786030980588
H            2.43955956197521       -0.79238663992538        1.53102059396186
H            3.94195489885936       -1.18491618733108        0.67939564935483
H            2.65859610864316       -2.61361009562310       -0.74273675741900
H            2.30383385707919       -2.99948160907994        0.80336166456981
H           -3.51600623048273       -0.06001144028942       -0.68432846070980
