18
 energy: -24.180608188793 gnorm: 0.000055522771 xtb: 6.7.1 (b14f90e)
C            1.49906230889240       -1.05899528781772       -0.02701778429757
C            0.22946462918402       -0.57243433738646        0.11161308473284
N            0.32629620074471        0.79079240468101        0.10905397364869
C            1.59358859756467        1.13570823480899       -0.03148340964179
N            2.32543210417962        0.02517291341521       -0.11125865299338
C           -1.10996934091254       -1.20363831664956        0.26080393180349
C           -2.19130454756195       -0.36034176546374       -0.43232789801770
N           -2.20768940371108        1.00101243549079        0.12156618734969
H            1.86104441602318       -2.06497114194321       -0.07152930928184
H           -0.63362961820556        1.28375813800401        0.14245851919098
H            1.97261082395414        2.13781109311039       -0.07229199144745
H           -1.34665375158945       -1.28971619929082        1.32534826122697
H           -1.10016546916057       -2.20908164397543       -0.15729965080184
H           -3.15639247762737       -0.86689449480303       -0.32822470678773
H           -1.96341204949942       -0.28384770335741       -1.49820373084905
H           -2.58754804000389        0.99593191802642        1.06444730592945
H           -2.79465745098977        1.60822565191212       -0.44083586933023
H            3.32973234881888       -0.01650882936157       -0.21612450503353
