19
 energy: -30.464497607760 gnorm: 0.000109568946 xtb: 6.7.1 (b14f90e)
C           -0.65073683510000       -0.37921555660000        1.13774328280000
C           -1.42034581690000       -0.48313983890000       -0.17630191640000
C           -0.94824277050000        0.69645507820000       -1.03409899020000
N           -0.11816992510000        1.47093848090000       -0.12949232080000
C            0.53025836450000        0.52281995890000        0.76065990630000
C            1.58156715210000       -0.29829178780000        0.00310346330000
O            1.28316934030000       -1.20684556570000       -0.73056731310000
O            2.80426179050000        0.15652223100000        0.18802314740000
O           -2.88209621140000       -0.31029693010000        0.12618541000000
H           -1.27799562030000       -1.44107576940000       -0.67736705830000
H            0.98710083940000        1.04062253470000        1.60380025220000
H           -0.33005417360000       -1.34391294340000        1.52165033660000
H           -1.25824650140000        0.14108633440000        1.87733010110000
H           -1.78127858170000        1.31857550250000       -1.37324862280000
H           -0.41502516350000        0.31259864980000       -1.91395514030000
H            0.52134892210000        2.10013857330000       -0.59826373750000
H            3.46783538860000       -0.33605319140000       -0.32534954920000
H           -3.17951762100000       -0.99902726500000        0.75685887330000
H           -3.41087807140000       -0.33463962550000       -0.69826646940000
