25
 energy: -42.241925451145 gnorm: 0.000046231927 xtb: 6.7.1 (b14f90e)
N           -1.23732265060000        1.07907261530000       -0.00000530900000
C           -1.84412425950000       -0.21649417020000       -0.00004469010000
N           -0.98404613470000       -1.29107557470000       -0.00004543580000
C            0.09184163640000        1.30671601430000        0.00003563720000
C            0.91523228450000        0.19021496290000        0.00000731070000
C            0.34702407000000       -1.10861085370000       -0.00001602740000
N            1.31461386310000       -2.03107848790000        0.00010934150000
N            2.27940420960000       -0.01729332770000        0.00004106580000
C            2.44288857740000       -1.34841190490000       -0.00000667830000
C            3.29701536770000        0.99690618370000       -0.00014524950000
C           -1.56226310520000       -2.62240123960000        0.00000069410000
C           -2.16210741870000        2.20586585570000       -0.00000570860000
O            0.58540676720000        2.52210077460000        0.00010325540000
O           -3.03470159370000       -0.33194054630000       -0.00003848680000
H            3.40551987640000       -1.82245235500000        0.00002277190000
H            4.27507983500000        0.52163573170000        0.00174379090000
H            3.20115380030000        1.62788221710000        0.88416805980000
H            3.20338054810000        1.62538526170000       -0.88649748570000
H           -2.18933175750000       -2.74954714050000       -0.88212599190000
H           -2.18619240950000       -2.75088036720000        0.88415190980000
H           -0.74813829050000       -3.34151764240000       -0.00186057470000
H           -3.17142807700000        1.79301422460000       -0.00002785370000
H           -2.03934602860000        2.81126797970000       -0.89967709650000
H           -2.03926700810000        2.81117917470000        0.89971659450000
H           -0.08583394840000        3.22437341150000        0.00005472020000
