27
 energy: -39.918679845217 gnorm: 0.000349689945 xtb: 6.7.1 (b14f90e)
O           -3.17776347600000       -0.65906457490000       -0.61502921870000
O           -1.26577764520000       -1.65660353030000       -0.03462365930000
N           -0.64410321380000        0.30783756750000        1.73286784160000
N            1.64726842730000        0.61470608060000        0.49280039260000
N            3.60472787440000       -0.47903522030000        0.08987959870000
N            1.56074657670000       -1.55382445560000       -0.48168647980000
C           -1.27404023670000        1.66233897420000       -0.25667309580000
C           -0.09752120530000        1.30189977310000       -1.17565112970000
C           -1.70168736710000        0.57420244940000        0.74769253770000
C            1.28010609770000        1.57609209990000       -0.58289891570000
C           -2.01803668720000       -0.71197973110000       -0.00487717630000
C            2.35822521630000       -0.58806147010000        0.00428190180000
H           -2.14612901160000        1.87195900400000       -0.87632747420000
H           -1.04253451320000        2.57352870690000        0.29729974930000
H           -0.16254819460000        0.26437151900000       -1.50151874550000
H           -0.17803953820000        1.92035355210000       -2.07037394000000
H           -2.63273721770000        0.90467883310000        1.22473809240000
H            2.04001248200000        1.52370901110000       -1.36444998880000
H            1.29791583090000        2.58204959750000       -0.15985665810000
H           -0.76655985720000       -0.61577315180000        2.14139936030000
H           -0.68172975810000        0.99228714510000        2.48247524380000
H           -3.38647357700000       -1.47439641770000       -1.10302319430000
H            4.17367024230000       -1.25057171610000       -0.22846887170000
H            1.99376169470000       -2.40770563650000       -0.79310392790000
H            0.56994511860000       -1.61109833140000       -0.27672482210000
H            0.70712519430000        0.39877578630000        1.06597909950000
H            2.34019769540000        1.06068975550000        1.10127072220000
