21
 energy: -32.850245975821 gnorm: 0.000030379879 xtb: 6.7.1 (b14f90e)
O            3.88444052128378        0.25436295435693       -0.00011862160501
O           -2.43483051759917        1.36189781810820       -0.00049858856503
N           -1.55181395594380       -0.73403888635104        0.00022414076241
C           -0.24247040565452       -0.43227170903577        0.00010838899132
C            0.21948908154798        0.96386363268318        0.00031992563177
C            0.70712925768263       -1.46579196075689       -0.00010473228731
C            1.67251334000297        1.17550401949307        0.00027571874409
C            2.04833202648486       -1.19608754692712       -0.00019821446904
C            2.55792174896278        0.13494647421459       -0.00000294644308
C           -2.63746958104570        0.18147227608838       -0.00009592487185
C           -3.95985767157372       -0.50339850901110        0.00013644846372
H           -0.23736940996913        1.50518749529075       -0.84468229024398
H            0.37292235065896       -2.49307946444682       -0.00025060631015
H           -1.79479050983876       -1.71991691636402        0.00026912977771
H            2.01548232978491        2.20013262167853        0.00041694892003
H            2.77358953946787       -1.99676463975671       -0.00058719506198
H           -4.06442078429814       -1.13130887615701        0.88366013432890
H           -4.06384817497116       -1.13338271125198       -0.88197086502371
H           -4.75137563331181        0.24119430394303       -0.00092055103244
H            4.18507282178161        1.17331794357780       -0.00000860785288
H           -0.23724167915243        1.50498103122400        0.84551391024651
