  21
        -32.83709407
 O         -3.6832751720        0.0773413917       -0.5670606501
 O          2.9618829742        1.1654069713       -0.3626895630
 N          1.6499334558       -0.1660611586        1.0307185173
 C          0.2335083841       -0.0876352571        0.6288860522
 C         -0.3198806410        1.1502237450        0.3414672760
 C         -0.5135745142       -1.2518465502        0.5118870577
 C         -1.6379722011        1.2266068998       -0.0614723975
 C         -1.8290704208       -1.1740311373        0.1116866303
 C         -2.4083446404        0.0668150416       -0.1825258001
 C          2.5457769009        0.0760955825       -0.2310405484
 C          2.6718029664       -1.1392870569       -1.0466834482
 H          0.2699927469        2.0497067103        0.4289190548
 H         -0.0832884250       -2.2140810486        0.7473283797
 H          1.8614202628        0.5837726320        1.7039624199
 H         -2.0737712991        2.1896044343       -0.2813753785
 H         -2.4370634300       -2.0587100252        0.0216969454
 H          1.7064831095       -1.6196158087       -1.1977148572
 H          3.3337763433       -1.8523316105       -0.5524275790
 H          3.1089830596       -0.8849447476       -2.0102704766
 H         -4.0101151797        0.9700233559       -0.7440037103
 H          1.8339784019       -1.0807133868        1.4585117064
