25
 energy: -34.080437420333 gnorm: 0.000516798765 xtb: 6.7.1 (b14f90e)
C            0.86432942670000       -1.24408870480000        0.90674376840000
C            2.18507755980000       -0.85632540100000        0.21697288350000
C            2.56137761360000        0.61217085620000        0.37258853990000
N            1.50366002240000        1.48142780730000       -0.19374764270000
C           -0.25114145010000       -1.69270817810000       -0.04436419990000
C           -1.00914339730000       -0.58870303210000       -0.81165237750000
C           -1.62177847640000        0.37517381370000        0.19877196960000
O           -1.04605448920000        1.32894227000000        0.67396053650000
O           -2.84163631100000        0.02049636420000        0.52221154430000
N           -0.13216868540000        0.12492796690000       -1.75389686670000
H           -1.84724603940000       -1.07304494510000       -1.33033173120000
H            0.51174036800000       -0.42936089600000        1.53876250200000
H            1.05550789850000       -2.08673375470000        1.57080729570000
H            2.14139272810000       -1.10303572050000       -0.84359913230000
H            3.00057127380000       -1.44124332280000        0.64079222830000
H            3.49522041080000        0.79859958950000       -0.15926840160000
H            2.71317674080000        0.85749135250000        1.42486994670000
H            1.87231099150000        2.37381955400000       -0.51871702190000
H            0.73666050570000        1.65813767330000        0.48211448300000
H           -0.99860493150000       -2.23606290550000        0.53525018460000
H            0.15884821860000       -2.39232679360000       -0.77487850220000
H           -3.23844128590000        0.59548392360000        1.19973136590000
H           -0.67800592050000        0.79005061890000       -2.29596156650000
H            0.26262480310000       -0.54567008310000       -2.40858439220000
H            0.95047159910000        0.94029621740000       -0.98143541100000
