37
 energy: -63.191071471647 gnorm: 0.000045064082 xtb: 6.7.1 (b14f90e)
P           -1.56705155850000       -0.67437652060000        0.02254953650000
P            1.25830748160000       -1.03943832570000       -0.07984663300000
P            0.10552794640000        1.47689461270000       -0.14565336150000
O           -1.73274774000000       -0.91867722940000        1.56498319890000
O           -2.84925598620000       -1.28788391780000       -0.62188979870000
O            1.51954741230000       -1.45531770400000        1.41545342460000
O            2.28754226850000       -1.89094465300000       -0.89353422870000
O            0.07493886320000        1.95028772800000        1.35873360400000
O            0.30404787880000        2.80271179220000       -0.95011935800000
N           -0.27051722850000       -1.67109664250000       -0.35669046050000
N           -1.33132022490000        0.81347718360000       -0.47971990520000
N            1.37414418840000        0.49781972980000       -0.45054897350000
C           -2.65268078480000       -0.12213248070000        2.32970278890000
C           -3.30832571280000       -0.93306011140000       -1.93359521560000
C            2.76358535710000       -1.14231875090000        2.05838675480000
C            2.63793388030000       -1.59908137250000       -2.25157554560000
C            1.15513978710000        2.72564590790000        1.89562129970000
C            0.41246022940000        2.79918598910000       -2.37461769230000
H           -2.45899765900000        0.93787593130000        2.16096202000000
H           -2.47557188580000       -0.38041651880000        3.37196018640000
H           -3.67852905130000       -0.36226897800000        2.05253212200000
H           -3.03699412440000        0.09716170040000       -2.15695542380000
H           -4.39115487990000       -1.04585808700000       -1.92022551180000
H           -2.87387947390000       -1.60693692320000       -2.67096638010000
H            3.53303536380000       -1.84369506500000        1.73747043190000
H            2.58699286170000       -1.24404477890000        3.12768536590000
H            3.07328603020000       -0.12421906940000        1.82033827870000
H            3.64504327030000       -1.98628986120000       -2.39754136350000
H            2.61812215850000       -0.52354744630000       -2.41909736360000
H            1.94607251940000       -2.09788906080000       -2.92919619380000
H            2.11355974520000        2.34275709100000        1.54374641220000
H            1.08584653410000        2.63975521730000        2.97883300630000
H            1.04765563240000        3.76677921050000        1.59443699960000
H            0.59602491010000        3.83283041560000       -2.66381500660000
H           -0.51428256970000        2.44344118270000       -2.82335661000000
H            1.24274952240000        2.16735351930000       -2.68870528510000
H           -0.37818197020000       -2.63038569250000       -0.04842377050000
