18
 energy: -24.139854134821 gnorm: 0.000028993694 xtb: 6.7.1 (b14f90e)
C            0.65956063847456       -0.85729936420511        0.62150975808940
C            0.17218800377381        0.41823757016840        0.40961710090707
N            1.13788953020814        1.05117433773694       -0.32209705473701
C            2.15530915490436        0.16716291128659       -0.48745685244475
N            1.88983430942641       -0.98001614947897        0.05968794928847
C           -1.18940371461557        0.96528748238795        0.66972429960962
C           -2.16112234820717        0.41205540408711       -0.38492913445673
N           -2.04880208201211       -1.07219410347278       -0.39340437846377
H            0.28488510498824       -1.64342142367138        1.25149431722403
H            1.12482545931932        2.01379464679470       -0.62034659741035
H            3.06070258553162        0.39973432070822       -1.00883247089954
H           -1.18930350952290        2.05323960743357        0.61988182889992
H           -1.52094232615718        0.67617370255906        1.66829062771341
H           -1.88678283181140        0.78138583099800       -1.37441524693083
H           -3.18612767417148        0.71115010295472       -0.16861444566754
H           -2.55356860381131       -1.48496918467790        0.39899063295690
H           -1.00825952326227       -1.27741545461251       -0.26306924377749
H           -2.39772606125505       -1.49099051249661       -1.26079256460082
