27
 energy: -39.912528517328 gnorm: 0.000061180183 xtb: 6.7.1 (b14f90e)
O           -3.09806499030000        0.26948101710000        0.90920851750000
O           -1.26254321240000        1.52339339430000        0.70855716170000
N           -0.67524198280000        0.46501225180000       -1.73422237990000
N            2.05410801790000       -0.67092213750000        0.89919708670000
N            3.61623056620000        0.50867511160000       -0.25431682290000
N            1.31941983680000        1.30913902510000       -0.21523323930000
C           -1.28097145410000       -1.65095841030000       -0.56280186630000
C            0.20465845210000       -1.85166198480000       -0.26054961410000
C           -1.70084218490000       -0.20740654760000       -0.92266995380000
C            0.70143841360000       -1.16510345770000        1.02842840160000
C           -1.98244404140000        0.63246029250000        0.32064134710000
C            2.43914215940000        0.35476149760000        0.11995009580000
H           -1.88490183400000       -1.98162882210000        0.28217829990000
H           -1.53356942650000       -2.29012288110000       -1.41012024300000
H            0.37823243050000       -2.92506340510000       -0.18425433510000
H            0.80483260440000       -1.49963191190000       -1.10162900410000
H           -2.66048240020000       -0.27579393460000       -1.45291984210000
H            0.04310119020000       -0.34283880730000        1.30583211900000
H            0.69361792490000       -1.87173237380000        1.85810077810000
H           -1.04660785670000        1.34036746020000       -2.09594351590000
H           -0.43550772990000       -0.12040429530000       -2.53037153970000
H           -3.30153838660000        0.80263513820000        1.69705927920000
H            3.89071537950000        1.33360449770000       -0.76358063630000
H            0.51521187200000        0.88278786660000       -0.89589590850000
H            1.71225865230000        2.14484007700000       -0.65419942930000
H            2.80183280890000       -1.32496930950000        1.08046309370000
H            0.78394490470000        1.59817590650000        0.61553166710000
