17
 energy: -31.403595019238 gnorm: 0.000363575772 xtb: 6.7.1 (b14f90e)
C            0.66968022610000        0.92205252120000        0.43925905010000
C           -0.63605324280000        0.72136783660000       -0.36369586830000
C           -1.37555746230000       -0.58008964650000       -0.00325213500000
O           -2.62166446050000       -0.45047610460000        0.19115949080000
O           -0.81360255710000       -1.69464514110000        0.07458430900000
N           -1.61647182310000        1.77622341250000       -0.17769510910000
C            1.79304076260000       -0.01395397910000        0.04220368590000
O            1.60890300210000       -1.18124599630000       -0.26741976760000
O            2.96047530360000        0.54865832470000        0.07109493520000
H           -0.38916679610000        0.63489380540000       -1.43143333980000
H            0.48223291070000        0.77513367760000        1.50818011030000
H            1.02181295800000        1.94721596350000        0.30482525930000
H            0.24541234590000       -1.66806037010000       -0.09931173440000
H           -1.51429508600000        2.25619865230000        0.70970350060000
H           -1.62458765680000        2.46656418620000       -0.91686957750000
H            3.69632368960000       -0.05184107700000       -0.15202976140000
H           -2.83230113060000        0.54394061780000        0.07976733420000
