  21
        -32.82202858
 O         -3.9225031160       -0.3525930205       -0.0503929146
 O          2.5226645721       -1.3879791411        0.0254551476
 N          1.5855599354        0.6912309324       -0.0058262220
 C          0.2438022955        0.3985775500       -0.0033415027
 C         -0.6745191770        1.4590428489        0.0067767089
 C         -0.2401195411       -0.9172380015       -0.0096405785
 C         -2.0336748632        1.2208377215        0.0096945255
 C         -1.5984807921       -1.1618295247       -0.0068896037
 C         -2.4674600723       -0.0900093178        0.0004002526
 C          2.6615160882       -0.1948067417        0.0037049680
 C          3.9820191456        0.5196613156       -0.0136142823
 H         -0.3195773692        2.4777769380        0.0116324697
 H          0.4586118614       -1.7375038228       -0.0159665451
 H          1.8197218170        1.6754414597       -0.0164612690
 H         -2.7327357342        2.0421223767        0.0100543220
 H         -1.9596088152       -2.1789829299       -0.0184013038
 H          4.0701175140        1.1307541976       -0.9097404161
 H          4.7839220424       -0.2126922310       -0.0031963734
 H          4.0769987267        1.1637627585        0.8584120262
 H         -4.4108035763        0.2509204134        0.5491303310
 H         -4.0876559123       -1.2957579759        0.1651773368
