26
 energy: -37.538176524162 gnorm: 0.000038880958 xtb: 6.7.1 (b14f90e)
C            2.86012273260000       -0.21610970440000        0.11665661230000
C            2.17454706880000       -1.40639082180000        0.15647362480000
C            0.78876234390000       -1.34730155120000        0.07645160730000
C            0.09463700310000       -0.12872021240000       -0.03405386910000
C            0.79209303940000        1.06087520120000       -0.07371814930000
C            2.18652646570000        1.01420886270000       -0.00349237810000
O            2.94535505240000        2.11226915670000       -0.04588529500000
C           -1.35867691750000       -0.45016017240000       -0.05946798270000
C           -1.36146580230000       -1.90605296080000       -0.05451501320000
N           -0.14207164930000       -2.37119002060000        0.05754393990000
C           -2.30321241140000        0.28086385190000       -1.03328415170000
C           -2.87483732740000        1.50313239740000       -0.30116531100000
N           -3.16832219350000        1.09413410400000        1.06653651390000
H            3.93578487100000       -0.19051564300000        0.17302066000000
H            2.69526965000000       -2.34558654950000        0.24841580180000
H            0.28377002740000        2.00896967350000       -0.16364758610000
H            2.42260653100000        2.92118681620000       -0.12582007130000
H           -2.22394735400000       -2.54543710840000       -0.10979886210000
H            0.11057905180000       -3.35078507400000        0.11291369380000
H           -3.11326298510000       -0.39503762740000       -1.30649403930000
H           -1.77882355760000        0.57455970550000       -1.94022603960000
H           -3.74825615220000        1.88286782290000       -0.84038212810000
H           -2.12751015750000        2.29675116700000       -0.26351749990000
H           -4.04309343540000        0.58395106000000        1.12538353590000
H           -3.20924107500000        1.87651052440000        1.70731803300000
H           -1.85233530310000       -0.08581051040000        0.91043363510000
