  20
        -34.57707864
 C          0.0008870605        1.0759150644       -0.8092279504
 C         -1.4430250797        1.1855524767       -0.3266420528
 C         -2.1024106677       -0.1105054442        0.0465284815
 O         -3.3701473738        0.0191057731        0.2998448228
 O         -1.5399515746       -1.2017123563        0.1211415703
 C          1.0221930868        0.7169847093        0.3091719214
 C          1.6055458342       -0.6602006832        0.0211008554
 O          2.8831280253       -0.7450119540       -0.0288608020
 O          0.8841996864       -1.6670941897       -0.1716385801
 N          1.9761991313        1.7705740285        0.4673031507
 H          0.4824423998        0.6123486119        1.2627397570
 H          0.2988195762        2.0538697978       -1.1871704117
 H          0.0595542207        0.3686014721       -1.6387021095
 H         -2.0582119866        1.6411598102       -1.1067273705
 H         -1.5094887047        1.8549342309        0.5353295080
 H          3.2316290943       -1.6395575299       -0.2154924089
 H         -0.2160269845       -1.4921505306       -0.0770752412
 H          2.5633359921        1.8993786365       -0.3468216873
 H          2.5624691124        1.6648288102        1.2843037361
 H         -3.8120624545       -0.8155281852        0.5410849920
