26
 energy: -37.546776929144 gnorm: 0.000061498997 xtb: 6.7.1 (b14f90e)
C            2.66236266153429       -0.38190636809028       -0.30080629260410
C            1.90907899797341       -1.52475583599104       -0.44258018146666
C            0.55141478312187       -1.45434612043647       -0.15469341773424
C           -0.05304449390306       -0.24837813692376        0.27773107829113
C            0.74028329303345        0.89631268145325        0.45166447685235
C            2.09111334484034        0.81754954905072        0.15486717531901
O            2.82456785300076        1.94597570840743        0.31202979846052
C           -1.44098394740948       -0.53711133176611        0.46957774539917
C           -1.60847038471811       -1.86202501210215        0.16730273512802
N           -0.42282617760627       -2.40945331675719       -0.20620955292818
C           -2.50737272341008        0.45281943010436        0.81829452185476
C           -2.88271848372281        1.26598479583439       -0.42227113368945
N           -1.68381238504858        2.02933324471115       -0.88020708170462
H            3.72062842818669       -0.40721757527323       -0.51528691543623
H            2.36338870108009       -2.44920230538584       -0.76088186358732
H            0.37886804914852        1.80392601424597        0.91309735485125
H            3.75977425883883        1.77124567714938        0.15178926530113
H           -2.50477438459653       -2.44984197076186        0.20408138264761
H           -0.27628038619226       -3.37631642189214       -0.44306210039252
H           -2.16884171948905        1.11878833121271        1.61383063957268
H           -3.39382781709968       -0.06999279584832        1.17351809308334
H           -3.69878808478583        1.95942638506543       -0.21772563957379
H           -3.18495239757899        0.58869892021881       -1.22184048494051
H           -1.54756446165920        2.86436249506577       -0.29981737446199
H           -1.75822199625886        2.31803710215632       -1.85990440051360
H           -0.83524072877946        1.41547782305268       -0.73694985462776
